
     RDKit          3D

 21 21  0  0  0  0  0  0  0  0999 V2000
    2.4247   -0.1548    0.0859 C   0  0  0  0  0  0  0  0  0  0  0  0
    0.9761    0.2018   -0.2423 C   0  0  0  0  0  0  0  0  0  0  0  0
    0.2189   -1.0287   -0.7597 C   0  0  0  0  0  0  0  0  0  0  0  0
   -1.2470   -0.7100   -1.0447 C   0  0  0  0  0  0  0  0  0  0  0  0
   -1.9394   -0.1077    0.1740 C   0  0  0  0  0  0  0  0  0  0  0  0
   -1.1922    1.1154    0.6965 C   0  0  0  0  0  0  0  0  0  0  0  0
    0.2738    0.7996    0.9844 C   0  0  0  0  0  0  0  0  0  0  0  0
    2.9366   -0.5508   -0.7974 H   0  0  0  0  0  0  0  0  0  0  0  0
    2.4800   -0.9107    0.8767 H   0  0  0  0  0  0  0  0  0  0  0  0
    2.9751    0.7295    0.4238 H   0  0  0  0  0  0  0  0  0  0  0  0
    0.9874    0.9596   -1.0371 H   0  0  0  0  0  0  0  0  0  0  0  0
    0.2744   -1.8390   -0.0213 H   0  0  0  0  0  0  0  0  0  0  0  0
    0.6923   -1.4013   -1.6759 H   0  0  0  0  0  0  0  0  0  0  0  0
   -1.3107   -0.0076   -1.8850 H   0  0  0  0  0  0  0  0  0  0  0  0
   -1.7696   -1.6230   -1.3516 H   0  0  0  0  0  0  0  0  0  0  0  0
   -2.9670    0.1707   -0.0854 H   0  0  0  0  0  0  0  0  0  0  0  0
   -2.0032   -0.8626    0.9674 H   0  0  0  0  0  0  0  0  0  0  0  0
   -1.2526    1.9235   -0.0428 H   0  0  0  0  0  0  0  0  0  0  0  0
   -1.6763    1.4808    1.6091 H   0  0  0  0  0  0  0  0  0  0  0  0
    0.3326    0.0985    1.8269 H   0  0  0  0  0  0  0  0  0  0  0  0
    0.7860    1.7169    1.2985 H   0  0  0  0  0  0  0  0  0  0  0  0
  1  2  1  0
  2  3  1  0
  3  4  1  0
  4  5  1  0
  5  6  1  0
  6  7  1  0
  7  2  1  0
  1  8  1  0
  1  9  1  0
  1 10  1  0
  2 11  1  0
  3 12  1  0
  3 13  1  0
  4 14  1  0
  4 15  1  0
  5 16  1  0
  5 17  1  0
  6 18  1  0
  6 19  1  0
  7 20  1  0
  7 21  1  0
M  END
$$$$
