
     RDKit          3D

 66 66  0  0  0  0  0  0  0  0999 V2000
   -5.6264    3.2630    0.8260 C   0  0  0  0  0  0  0  0  0  0  0  0
   -5.8586    2.3374    2.0080 C   0  0  0  0  0  0  0  0  0  0  0  0
   -6.1665    0.8870    1.6199 C   0  0  0  0  0  0  0  0  0  0  0  0
   -5.0050    0.1608    0.9251 C   0  0  0  0  0  0  0  0  0  0  0  0
   -5.0690    0.1927   -0.6211 C   0  0  1  0  0  0  0  0  0  0  0  0
   -3.6460    0.2955   -1.2069 C   0  0  0  0  0  0  0  0  0  0  0  0
   -2.8686   -0.8367   -0.7960 O   0  0  0  0  0  0  0  0  0  0  0  0
   -1.5856   -0.8079   -1.2272 C   0  0  0  0  0  0  0  0  0  0  0  0
   -1.0640    0.0258   -1.9466 O   0  0  0  0  0  0  0  0  0  0  0  0
   -0.8813   -1.9871   -0.6944 C   0  0  0  0  0  0  0  0  0  0  0  0
   -1.4235   -3.2640   -0.9023 C   0  0  0  0  0  0  0  0  0  0  0  0
   -0.7242   -4.3960   -0.4790 C   0  0  0  0  0  0  0  0  0  0  0  0
    0.5162   -4.2596    0.1455 C   0  0  0  0  0  0  0  0  0  0  0  0
    1.0579   -2.9902    0.3579 C   0  0  0  0  0  0  0  0  0  0  0  0
    0.3577   -1.8495   -0.0625 C   0  0  0  0  0  0  0  0  0  0  0  0
    0.8951   -0.5132    0.2504 C   0  0  0  0  0  0  0  0  0  0  0  0
    0.2508    0.3660    0.7952 O   0  0  0  0  0  0  0  0  0  0  0  0
    2.1882   -0.4576   -0.1483 O   0  0  0  0  0  0  0  0  0  0  0  0
    2.8116    0.8165    0.0719 C   0  0  0  0  0  0  0  0  0  0  0  0
    4.2744    0.7491   -0.4076 C   0  0  2  0  0  0  0  0  0  0  0  0
    5.0765   -0.2610    0.4480 C   0  0  0  0  0  0  0  0  0  0  0  0
    6.4908   -0.5602   -0.0694 C   0  0  0  0  0  0  0  0  0  0  0  0
    7.5854    0.2119    0.6692 C   0  0  0  0  0  0  0  0  0  0  0  0
    8.9685   -0.1640    0.1592 C   0  0  0  0  0  0  0  0  0  0  0  0
    4.8940    2.1571   -0.4807 C   0  0  0  0  0  0  0  0  0  0  0  0
    4.9576    2.9081    0.8426 C   0  0  0  0  0  0  0  0  0  0  0  0
   -5.7721   -1.0533   -1.2093 C   0  0  0  0  0  0  0  0  0  0  0  0
   -7.2393   -1.1849   -0.8324 C   0  0  0  0  0  0  0  0  0  0  0  0
   -6.4696    3.2311    0.1290 H   0  0  0  0  0  0  0  0  0  0  0  0
   -5.5150    4.2950    1.1740 H   0  0  0  0  0  0  0  0  0  0  0  0
   -4.7138    2.9984    0.2847 H   0  0  0  0  0  0  0  0  0  0  0  0
   -6.7036    2.7240    2.5907 H   0  0  0  0  0  0  0  0  0  0  0  0
   -4.9842    2.3670    2.6689 H   0  0  0  0  0  0  0  0  0  0  0  0
   -7.0785    0.8565    1.0159 H   0  0  0  0  0  0  0  0  0  0  0  0
   -6.3923    0.3467    2.5482 H   0  0  0  0  0  0  0  0  0  0  0  0
   -4.0610    0.5917    1.2818 H   0  0  0  0  0  0  0  0  0  0  0  0
   -4.9977   -0.8849    1.2590 H   0  0  0  0  0  0  0  0  0  0  0  0
   -5.6170    1.0819   -0.9538 H   0  0  0  0  0  0  0  0  0  0  0  0
   -3.6944    0.3251   -2.3023 H   0  0  0  0  0  0  0  0  0  0  0  0
   -3.1662    1.2162   -0.8523 H   0  0  0  0  0  0  0  0  0  0  0  0
   -2.3816   -3.3798   -1.4045 H   0  0  0  0  0  0  0  0  0  0  0  0
   -1.1442   -5.3863   -0.6422 H   0  0  0  0  0  0  0  0  0  0  0  0
    1.0591   -5.1435    0.4736 H   0  0  0  0  0  0  0  0  0  0  0  0
    2.0169   -2.8925    0.8625 H   0  0  0  0  0  0  0  0  0  0  0  0
    2.2655    1.5778   -0.4983 H   0  0  0  0  0  0  0  0  0  0  0  0
    2.7668    1.0596    1.1400 H   0  0  0  0  0  0  0  0  0  0  0  0
    4.2587    0.3486   -1.4313 H   0  0  0  0  0  0  0  0  0  0  0  0
    4.5311   -1.2141    0.4393 H   0  0  0  0  0  0  0  0  0  0  0  0
    5.1039    0.0537    1.4977 H   0  0  0  0  0  0  0  0  0  0  0  0
    6.5548   -0.3788   -1.1487 H   0  0  0  0  0  0  0  0  0  0  0  0
    6.6826   -1.6317    0.0744 H   0  0  0  0  0  0  0  0  0  0  0  0
    7.4498    1.2899    0.5485 H   0  0  0  0  0  0  0  0  0  0  0  0
    7.5307   -0.0027    1.7428 H   0  0  0  0  0  0  0  0  0  0  0  0
    9.0691    0.0662   -0.9063 H   0  0  0  0  0  0  0  0  0  0  0  0
    9.7372    0.3954    0.7017 H   0  0  0  0  0  0  0  0  0  0  0  0
    9.1628   -1.2319    0.3006 H   0  0  0  0  0  0  0  0  0  0  0  0
    5.8996    2.0966   -0.9104 H   0  0  0  0  0  0  0  0  0  0  0  0
    4.3098    2.7611   -1.1869 H   0  0  0  0  0  0  0  0  0  0  0  0
    5.4490    3.8757    0.6967 H   0  0  0  0  0  0  0  0  0  0  0  0
    5.5249    2.3582    1.5978 H   0  0  0  0  0  0  0  0  0  0  0  0
    3.9572    3.1053    1.2388 H   0  0  0  0  0  0  0  0  0  0  0  0
   -5.7086   -1.0105   -2.3040 H   0  0  0  0  0  0  0  0  0  0  0  0
   -5.2477   -1.9669   -0.9034 H   0  0  0  0  0  0  0  0  0  0  0  0
   -7.7956   -0.2785   -1.0906 H   0  0  0  0  0  0  0  0  0  0  0  0
   -7.6908   -2.0224   -1.3743 H   0  0  0  0  0  0  0  0  0  0  0  0
   -7.3621   -1.3829    0.2361 H   0  0  0  0  0  0  0  0  0  0  0  0
  1  2  1  0
  2  3  1  0
  3  4  1  0
  4  5  1  0
  5  6  1  0
  6  7  1  0
  7  8  1  0
  8  9  2  0
  8 10  1  0
 10 11  2  0
 11 12  1  0
 12 13  2  0
 13 14  1  0
 14 15  2  0
 15 16  1  0
 16 17  2  0
 16 18  1  0
 18 19  1  0
 19 20  1  0
 20 21  1  0
 21 22  1  0
 22 23  1  0
 23 24  1  0
 20 25  1  0
 25 26  1  0
  5 27  1  0
 27 28  1  0
 15 10  1  0
  1 29  1  0
  1 30  1  0
  1 31  1  0
  2 32  1  0
  2 33  1  0
  3 34  1  0
  3 35  1  0
  4 36  1  0
  4 37  1  0
  5 38  1  1
  6 39  1  0
  6 40  1  0
 11 41  1  0
 12 42  1  0
 13 43  1  0
 14 44  1  0
 19 45  1  0
 19 46  1  0
 20 47  1  6
 21 48  1  0
 21 49  1  0
 22 50  1  0
 22 51  1  0
 23 52  1  0
 23 53  1  0
 24 54  1  0
 24 55  1  0
 24 56  1  0
 25 57  1  0
 25 58  1  0
 26 59  1  0
 26 60  1  0
 26 61  1  0
 27 62  1  0
 27 63  1  0
 28 64  1  0
 28 65  1  0
 28 66  1  0
M  END
$$$$
